Version 4.1
SHEET 1 1020 680
WIRE 288 80 288 0
WIRE 304 80 288 80
WIRE 416 80 384 80
WIRE 464 80 464 0
WIRE 496 80 464 80
WIRE 608 80 576 80
WIRE 656 80 656 0
WIRE 688 80 656 80
WIRE 784 80 768 80
WIRE 816 80 816 0
WIRE 848 80 816 80
WIRE 960 80 928 80
WIRE 288 160 288 80
WIRE 464 160 464 80
WIRE 656 160 656 80
WIRE 816 160 816 80
WIRE -256 208 -256 192
WIRE -32 240 -32 192
WIRE 128 288 32 288
WIRE 288 288 288 240
WIRE 288 288 208 288
WIRE 336 288 288 288
WIRE 464 288 464 240
WIRE 464 288 416 288
WIRE 528 288 464 288
WIRE 656 288 656 240
WIRE 656 288 608 288
WIRE 704 288 656 288
WIRE 816 288 816 240
WIRE 816 288 784 288
WIRE 864 288 816 288
WIRE 992 288 944 288
WIRE -256 336 -256 288
WIRE -176 336 -256 336
WIRE -32 336 -96 336
WIRE 288 336 288 288
FLAG 416 144 0
FLAG 608 144 0
FLAG 784 144 0
FLAG 960 144 0
FLAG 288 -80 D19
IOPIN 288 -80 In
FLAG 464 -80 D18
IOPIN 464 -80 In
FLAG 656 -80 D5
IOPIN 656 -80 In
FLAG 816 -80 D17
IOPIN 816 -80 In
FLAG 992 288 0
FLAG -32 192 0
FLAG -256 192 0
FLAG 288 336 D34
IOPIN 288 336 Out
SYMBOL LED 400 80 R0
SYMATTR InstName D1
SYMBOL LED 592 80 R0
SYMATTR InstName D2
SYMBOL LED 768 80 R0
WINDOW 3 27 63 Left 2
SYMATTR InstName D3
SYMBOL LED 944 80 R0
SYMATTR InstName D4
SYMBOL res 400 64 R90
WINDOW 0 0 56 VBottom 2
WINDOW 3 32 56 VTop 2
SYMATTR InstName R1
SYMATTR Value 330
SYMBOL res 592 64 R90
WINDOW 0 0 56 VBottom 2
WINDOW 3 32 56 VTop 2
SYMATTR InstName R2
SYMATTR Value 330
SYMBOL res 784 64 R90
WINDOW 0 0 56 VBottom 2
WINDOW 3 32 56 VTop 2
SYMATTR InstName R3
SYMATTR Value 330
SYMBOL res 944 64 R90
WINDOW 0 0 56 VBottom 2
WINDOW 3 32 56 VTop 2
SYMATTR InstName R4
SYMATTR Value 330
SYMBOL res 272 144 R0
SYMATTR InstName R5
SYMATTR Value 10k
SYMBOL res 448 144 R0
SYMATTR InstName R6
SYMATTR Value 10k
SYMBOL res 640 144 R0
SYMATTR InstName R7
SYMATTR Value 10k
SYMBOL res 800 144 R0
SYMATTR InstName R8
SYMATTR Value 10k
SYMBOL res 432 272 R90
WINDOW 0 0 56 VBottom 2
WINDOW 3 32 56 VTop 2
SYMATTR InstName R9
SYMATTR Value 5k
SYMBOL res 624 272 R90
WINDOW 0 0 56 VBottom 2
WINDOW 3 32 56 VTop 2
SYMATTR InstName R10
SYMATTR Value 5k
SYMBOL res 800 272 R90
WINDOW 0 0 56 VBottom 2
WINDOW 3 32 56 VTop 2
SYMATTR InstName R11
SYMATTR Value 5k
SYMBOL res 960 272 R90
WINDOW 0 0 56 VBottom 2
WINDOW 3 32 56 VTop 2
SYMATTR InstName R12
SYMATTR Value 10k
SYMBOL res 224 272 R90
WINDOW 0 0 56 VBottom 2
WINDOW 3 32 56 VTop 2
SYMATTR InstName R13
SYMATTR Value 1k
SYMBOL npn 32 336 R180
SYMATTR InstName Q1
SYMATTR Value 2N2222
SYMBOL res -80 320 R90
WINDOW 0 0 56 VBottom 2
WINDOW 3 32 56 VTop 2
SYMATTR InstName Speaker
SYMATTR Value 8
SYMBOL voltage 288 -96 R0
WINDOW 123 0 0 Left 0
WINDOW 39 0 0 Left 0
SYMATTR InstName V1
SYMATTR Value 3.3
SYMBOL voltage 464 -96 R0
WINDOW 123 0 0 Left 0
WINDOW 39 0 0 Left 0
SYMATTR InstName V2
SYMATTR Value 3.3
SYMBOL voltage 656 -96 R0
WINDOW 123 0 0 Left 0
WINDOW 39 0 0 Left 0
SYMATTR InstName V3
SYMATTR Value 3.3
SYMBOL voltage 816 -96 R0
WINDOW 123 0 0 Left 0
WINDOW 39 0 0 Left 0
SYMATTR InstName V4
SYMATTR Value 3.3
SYMBOL voltage -256 192 R0
WINDOW 123 0 0 Left 0
WINDOW 39 0 0 Left 0
SYMATTR InstName V5
SYMATTR Value 5
TEXT -304 448 Left 2 !.tran 10m
